$RunGauss
%mem=32GB
%nproc=8
%chk=charges-resp.chk
#p PBE1PBE/GenECP SCF(Tight,QC,Restart) Pop(MKUFF)
   IOp(6/33=2,6/41=10,6/42=17)

Nickel ferrate (PBE0/SBKJC)

0 1
 Fe       14.5000000000      15.1900000000      14.9000000000
 Fe       10.0000000000      12.6000000000      14.9000000000
 Fe       13.0000000000      14.3300000000      19.7900000000
 Fe       13.0000000000      17.7900000000      14.9000000000
 Fe       16.0000000000      12.6000000000      14.9000000000
 Fe       16.0000000000      16.0600000000      10.0000000000
 Fe       18.9900000000      17.7900000000      14.9000000000
 Fe       10.0000000000      14.3300000000      12.4500000000
 Fe       13.0000000000      16.0600000000      17.3400000000
 Fe       13.0000000000      19.5200000000      12.4500000000
 Fe       16.0000000000      10.8700000000      17.3400000000
 Fe       16.0000000000      14.3300000000      12.4500000000
 Fe       18.9900000000      16.0600000000      17.3400000000
 Fe       11.5000000000      15.1900000000      14.9000000000
 Fe       14.5000000000      16.9200000000      19.7900000000
 Fe       14.5000000000      20.3900000000      14.9000000000
 Fe       14.5000000000      10.0000000000      14.9000000000
 Fe       14.5000000000      13.4600000000      10.0000000000
 Fe       17.5000000000      15.1900000000      14.9000000000
 Ni       13.0000000000      12.6000000000      16.7300000000
 Ni       13.0000000000      16.0600000000      11.8400000000
 Ni       16.0000000000      17.7900000000      16.7300000000
 Ni       13.0000000000      12.6000000000      13.0600000000
 Ni       16.0000000000      14.3300000000      17.9600000000
 Ni       16.0000000000      17.7900000000      13.0600000000
 O        11.6100000000      16.8600000000      16.0800000000
 O        14.6100000000      11.6700000000      16.0800000000
 O        14.6100000000      15.1300000000      11.1800000000
 O        17.6000000000      16.8600000000      16.0800000000
 O        13.0000000000      14.4500000000      16.0800000000
 O        13.0000000000      17.9200000000      11.1800000000
 O        16.0000000000      19.6500000000      16.0800000000
 O        16.0000000000      12.7200000000      11.1800000000
 O        18.9900000000      14.4500000000      16.0800000000
 O        13.0000000000      12.6000000000      18.7000000000
 O        13.0000000000      16.0600000000      13.8100000000
 O        16.0000000000      17.7900000000      18.7000000000
 O        16.0000000000      10.8700000000      13.8100000000
 O        18.9900000000      16.0600000000      13.8100000000
 O        11.3900000000      11.6700000000      16.0800000000
 O        11.3900000000      15.1300000000      11.1800000000
 O        14.3900000000      16.8600000000      16.0800000000
 O        17.3900000000      11.6700000000      16.0800000000
 O        17.3900000000      15.1300000000      11.1800000000
 O        11.3900000000      13.5200000000      13.7200000000
 O        14.3900000000      15.2600000000      18.6100000000
 O        14.3900000000      18.7200000000      13.7200000000
 O        17.3900000000      13.5200000000      13.7200000000
 O        10.0000000000      15.9300000000      13.7200000000
 O        13.0000000000      17.6600000000      18.6100000000
 O        13.0000000000      10.7400000000      13.7200000000
 O        16.0000000000      12.4700000000      18.6100000000
 O        16.0000000000      15.9300000000      13.7200000000
 O        10.0000000000      14.3300000000      15.9900000000
 O        13.0000000000      19.5200000000      15.9900000000
 O        13.0000000000      12.6000000000      11.0900000000
 O        16.0000000000      14.3300000000      15.9900000000
 O        16.0000000000      17.7900000000      11.0900000000
 O        11.6100000000      15.2600000000      18.6100000000
 O        11.6100000000      18.7200000000      13.7200000000
 O        14.6100000000      13.5200000000      13.7200000000
 O        17.6000000000      15.2600000000      18.6100000000
 O        17.6000000000      18.7200000000      13.7200000000

O     0
SP   3   1.00
      8.519000               -.145510               0.110070
      2.073000               0.082860               0.349690
      0.647100               0.743250               0.480930
SP   1   1.00
      0.200000               0.284720               0.307270
****
Fe     0
SP   4   1.00
     70.28000                -.002611               -.007940
      6.061000               -.692435               -.290151
      4.134000               0.362530               0.591028
      1.421000               1.140645               0.719448
SP   1   1.00
      0.512100               1.000000               1.000000
SP   2   1.00
      1.978000               -.098172               -.033731
      0.121300               1.026957               1.004462
SP   1   1.00
      0.041000               1.000000               1.000000
D    4   1.00
     47.10000                0.026608
     13.12000                0.152010
      4.478000               0.413827
      1.581000               0.605542
D    1   1.00
      0.510000               1.000000
D    1   1.00
      0.138200               1.000000
****
Ni     0
SP   4   1.00
     89.36000                -.005220               -.007529
      7.265000               -.683993               -.445862
      5.572000               0.251050               0.706364
      1.850000               1.236451               0.753606
SP   1   1.00
      0.659400               1.000000               1.000000
SP   2   1.00
      3.235000               -.063418               0.001136
      0.129500               1.013237               0.999895
SP   1   1.00
      0.043270               1.000000               1.000000
D    4   1.00
     58.73000                0.026246
     16.71000                0.150334
      5.783000               0.413385
      2.064000               0.604114
D    1   1.00
      0.675200               1.000000
D    1   1.00
      0.182500               1.000000
****

O     0
O-ECP     1     2
p potential
  1
1     16.1171800             -0.9255000
s-p potential
  2
0      5.0534800              1.9606900
2     15.9533300             29.1344200
FE     0
FE-ECP     2     10
d potential
  1
1     17.6191000             -3.8942300
s-d potential
  3
0      2.3315000              3.8170600
2      6.0836500            172.0534900
2      5.2665900           -144.7005600
p-d potential
  2
0     49.4045600              4.1373700
2     11.4018300             82.7369600
NI     0
NI-ECP     2     10
d potential
  1
1     21.3637300             -3.9933700
s-d potential
  3
0      2.2181700              3.4257200
2      6.7158500            218.5414600
2      5.8085600           -184.1096100
p-d potential
  2
0     56.4535300              3.8754000
2     13.6653400             99.6828900

